<?xml version="1.0" encoding="UTF-8"?>

<!-- generated on 2024-07-16 20:23:47 by Eclipse SUMO sumo Version 1.20.0
-->

<configuration xmlns:xsi="http://www.w3.org/2001/XMLSchema-instance" xsi:noNamespaceSchemaLocation="http://sumo.dlr.de/xsd/sumoConfiguration.xsd">

    <input>
        <net-file value="red.net.xml"/>
		<route-files value="noPublico.rou.xml"/>
        <additional-files value="test.add.xml"/>
    </input>

</configuration>
