<?xml version="1.0" encoding="UTF-8"?>

<!-- generated on 2024-07-16 20:23:46 by Eclipse SUMO netedit Version 1.20.0
<configuration xmlns:xsi="http://www.w3.org/2001/XMLSchema-instance" xsi:noNamespaceSchemaLocation="http://sumo.dlr.de/xsd/neteditConfiguration.xsd">

    <input>
        <sumocfg-file value="C:\Program Files (x86)\Eclipse\Sumo\elc101\final\traficoSimu.sumocfg"/>
        <additional-files value="C:\Program Files (x86)\Eclipse\Sumo\elc101\final\test.add.xml"/>
        <route-files value="C:\Program Files (x86)\Eclipse\Sumo\elc101\final\rutas.rou.xml"/>
        <sumo-net-file value="C:\Program Files (x86)\Eclipse\Sumo\elc101\final\red.net.xml"/>
    </input>

    <output>
        <output-file value="C:\Program Files (x86)\Eclipse\Sumo\elc101\final\red.net.xml"/>
    </output>

    <processing>
        <geometry.min-radius.fix.railways value="false"/>
        <geometry.max-grade.fix value="false"/>
        <offset.disable-normalization value="true"/>
        <lefthand value="0"/>
    </processing>

    <junctions>
        <no-turnarounds value="true"/>
        <junctions.corner-detail value="5"/>
        <junctions.limit-turn-speed value="5.50"/>
        <rectangular-lane-cut value="0"/>
    </junctions>

    <pedestrian>
        <walkingareas value="0"/>
    </pedestrian>

</configuration>
-->

<net version="1.20" junctionCornerDetail="5" limitTurnSpeed="5.50" xmlns:xsi="http://www.w3.org/2001/XMLSchema-instance" xsi:noNamespaceSchemaLocation="http://sumo.dlr.de/xsd/net_file.xsd">

    <location netOffset="0.00,0.00" convBoundary="0.00,0.00,80.00,80.00" origBoundary="-10000000000.00,-10000000000.00,10000000000.00,10000000000.00" projParameter="!"/>

    <edge id=":J1_0" function="internal">
        <lane id=":J1_0_0" index="0" speed="6.51" length="9.03" shape="35.20,50.40 34.85,47.95 33.80,46.20 32.05,45.15 29.60,44.80"/>
    </edge>
    <edge id=":J1_1" function="internal">
        <lane id=":J1_1_0" index="0" speed="13.89" length="14.86" shape="38.40,50.40 37.90,46.08 36.80,43.20 35.70,40.32 35.20,36.00"/>
    </edge>
    <edge id=":J1_2" function="internal">
        <lane id=":J1_2_0" index="0" speed="13.89" length="14.40" shape="44.00,44.80 29.60,44.80"/>
        <lane id=":J1_2_1" index="1" speed="13.89" length="14.40" shape="44.00,41.60 29.60,41.60"/>
    </edge>
    <edge id=":J1_4" function="internal">
        <lane id=":J1_4_0" index="0" speed="6.51" length="9.03" shape="44.00,41.60 41.55,41.25 39.80,40.20 38.75,38.45 38.40,36.00"/>
    </edge>
    <edge id=":J2_0" function="internal">
        <lane id=":J2_0_0" index="0" speed="13.89" length="14.86" shape="35.20,34.00 35.70,29.68 36.80,26.80 37.90,23.92 38.40,19.60"/>
    </edge>
    <edge id=":J2_1" function="internal">
        <lane id=":J2_1_0" index="0" speed="8.00" length="11.61" shape="35.20,34.00 35.75,30.15 37.40,27.40 40.15,25.75 44.00,25.20"/>
        <lane id=":J2_1_1" index="1" speed="6.51" length="11.61" shape="38.40,34.00 38.75,31.55 39.80,29.80 41.55,28.75 44.00,28.40"/>
    </edge>
    <edge id=":J2_3" function="internal">
        <lane id=":J2_3_0" index="0" speed="6.51" length="9.03" shape="29.60,25.20 32.05,24.85 33.80,23.80 34.85,22.05 35.20,19.60"/>
    </edge>
    <edge id=":J2_4" function="internal">
        <lane id=":J2_4_0" index="0" speed="13.89" length="14.40" shape="29.60,25.20 44.00,25.20"/>
        <lane id=":J2_4_1" index="1" speed="13.89" length="14.40" shape="29.60,28.40 44.00,28.40"/>
    </edge>

    <edge id="E1" from="J1" to="J2" priority="-1" shape="40.00,40.00 0.00,0.00 40.00,30.00">
        <lane id="E1_0" index="0" speed="13.89" length="2.00" shape="35.20,36.00 35.20,34.00"/>
        <lane id="E1_1" index="1" speed="13.89" length="2.00" shape="38.40,36.00 38.40,34.00"/>
    </edge>
    <edge id="a" from="a1" to="J1" priority="-1">
        <lane id="a_0" index="0" speed="13.89" length="29.60" shape="35.20,80.00 35.20,50.40"/>
        <lane id="a_1" index="1" speed="13.89" length="29.60" shape="38.40,80.00 38.40,50.40"/>
    </edge>
    <edge id="b" from="b2" to="J1" priority="-1">
        <lane id="b_0" index="0" speed="13.89" length="36.00" shape="80.00,44.80 44.00,44.80"/>
        <lane id="b_1" index="1" speed="13.89" length="36.00" shape="80.00,41.60 44.00,41.60"/>
    </edge>
    <edge id="c" from="c3" to="J2" priority="-1">
        <lane id="c_0" index="0" speed="13.89" length="29.60" shape="0.00,25.20 29.60,25.20"/>
        <lane id="c_1" index="1" speed="13.89" length="29.60" shape="0.00,28.40 29.60,28.40"/>
    </edge>
    <edge id="x" from="J1" to="x4" priority="-1">
        <lane id="x_0" index="0" speed="13.89" length="29.60" shape="29.60,44.80 0.00,44.80"/>
        <lane id="x_1" index="1" speed="13.89" length="29.60" shape="29.60,41.60 0.00,41.60"/>
    </edge>
    <edge id="y" from="J2" to="y5" priority="-1">
        <lane id="y_0" index="0" speed="13.89" length="36.00" shape="44.00,25.20 80.00,25.20"/>
        <lane id="y_1" index="1" speed="13.89" length="36.00" shape="44.00,28.40 80.00,28.40"/>
    </edge>
    <edge id="z" from="J2" to="z6" priority="-1">
        <lane id="z_0" index="0" speed="13.89" length="19.60" shape="35.20,19.60 35.20,0.00"/>
        <lane id="z_1" index="1" speed="13.89" length="19.60" shape="38.40,19.60 38.40,0.00"/>
    </edge>

    <junction id="J1" type="priority" x="40.00" y="40.00" incLanes="a_0 a_1 b_0 b_1" intLanes=":J1_0_0 :J1_1_0 :J1_2_0 :J1_2_1 :J1_4_0" shape="33.60,50.40 40.00,50.40 40.44,48.18 41.00,47.40 41.78,46.84 42.78,46.51 44.00,46.40 44.00,40.00 41.78,39.56 41.00,39.00 40.44,38.22 40.11,37.22 40.00,36.00 33.60,36.00 33.16,38.22 32.60,39.00 31.82,39.56 30.82,39.89 29.60,40.00 29.60,46.40 31.82,46.84 32.60,47.40 33.16,48.18 33.49,49.18">
        <request index="0" response="00000" foes="01100" cont="0"/>
        <request index="1" response="00000" foes="01100" cont="0"/>
        <request index="2" response="00011" foes="00011" cont="0"/>
        <request index="3" response="00011" foes="00011" cont="0"/>
        <request index="4" response="00000" foes="00000" cont="0"/>
    </junction>
    <junction id="J2" type="priority" x="40.00" y="30.00" incLanes="E1_0 E1_1 c_0 c_1" intLanes=":J2_0_0 :J2_1_0 :J2_1_1 :J2_3_0 :J2_4_0 :J2_4_1" shape="44.00,30.00 44.00,23.60 41.78,23.16 41.00,22.60 40.44,21.82 40.11,20.82 40.00,19.60 33.60,19.60 33.16,21.82 32.60,22.60 31.82,23.16 30.82,23.49 29.60,23.60 29.60,30.00 31.82,30.44 32.60,31.00 33.16,31.78 33.49,32.78 33.60,34.00 40.00,34.00 40.44,31.78 41.00,31.00 41.78,30.44 42.78,30.11">
        <request index="0" response="110000" foes="110000" cont="0"/>
        <request index="1" response="110000" foes="110000" cont="0"/>
        <request index="2" response="110000" foes="110000" cont="0"/>
        <request index="3" response="000000" foes="000000" cont="0"/>
        <request index="4" response="000000" foes="000111" cont="0"/>
        <request index="5" response="000000" foes="000111" cont="0"/>
    </junction>
    <junction id="a1" type="dead_end" x="40.00" y="80.00" incLanes="" intLanes="" shape="40.00,80.00 33.60,80.00" name="a"/>
    <junction id="b2" type="dead_end" x="80.00" y="40.00" incLanes="" intLanes="" shape="80.00,40.00 80.00,46.40" name="b"/>
    <junction id="c3" type="dead_end" x="0.00" y="30.00" incLanes="" intLanes="" shape="0.00,30.00 0.00,23.60" name="c"/>
    <junction id="x4" type="dead_end" x="0.00" y="40.00" incLanes="x_0 x_1" intLanes="" shape="0.00,46.40 0.00,40.00" name="x"/>
    <junction id="y5" type="dead_end" x="80.00" y="30.00" incLanes="y_0 y_1" intLanes="" shape="80.00,23.60 80.00,30.00" name="y"/>
    <junction id="z6" type="dead_end" x="40.00" y="0.00" incLanes="z_0 z_1" intLanes="" shape="33.60,0.00 40.00,0.00" name="z"/>

    <connection from="E1" to="z" fromLane="0" toLane="1" via=":J2_0_0" dir="r" state="m"/>
    <connection from="E1" to="y" fromLane="0" toLane="0" via=":J2_1_0" dir="s" state="m"/>
    <connection from="E1" to="y" fromLane="1" toLane="1" via=":J2_1_1" dir="s" state="m"/>
    <connection from="a" to="x" fromLane="0" toLane="0" via=":J1_0_0" dir="r" state="M"/>
    <connection from="a" to="E1" fromLane="1" toLane="0" via=":J1_1_0" dir="R" state="M"/>
    <connection from="b" to="x" fromLane="0" toLane="0" via=":J1_2_0" dir="s" state="m"/>
    <connection from="b" to="x" fromLane="1" toLane="1" via=":J1_2_1" dir="s" state="m"/>
    <connection from="b" to="E1" fromLane="1" toLane="1" via=":J1_4_0" dir="l" state="M"/>
    <connection from="c" to="z" fromLane="0" toLane="0" via=":J2_3_0" dir="r" state="M"/>
    <connection from="c" to="y" fromLane="0" toLane="0" via=":J2_4_0" dir="s" state="M"/>
    <connection from="c" to="y" fromLane="1" toLane="1" via=":J2_4_1" dir="s" state="M"/>

    <connection from=":J1_0" to="x" fromLane="0" toLane="0" dir="r" state="M"/>
    <connection from=":J1_1" to="E1" fromLane="0" toLane="0" dir="R" state="M"/>
    <connection from=":J1_2" to="x" fromLane="0" toLane="0" dir="s" state="M"/>
    <connection from=":J1_2" to="x" fromLane="1" toLane="1" dir="s" state="M"/>
    <connection from=":J1_4" to="E1" fromLane="0" toLane="1" dir="l" state="M"/>
    <connection from=":J2_0" to="z" fromLane="0" toLane="1" dir="r" state="M"/>
    <connection from=":J2_1" to="y" fromLane="0" toLane="0" dir="s" state="M"/>
    <connection from=":J2_1" to="y" fromLane="1" toLane="1" dir="s" state="M"/>
    <connection from=":J2_3" to="z" fromLane="0" toLane="0" dir="r" state="M"/>
    <connection from=":J2_4" to="y" fromLane="0" toLane="0" dir="s" state="M"/>
    <connection from=":J2_4" to="y" fromLane="1" toLane="1" dir="s" state="M"/>

</net>
