<?xml version="1.0" encoding="UTF-8"?>

<!-- generated on 2024-07-17 06:31:37 by Eclipse SUMO sumo Version 1.20.0
-->

<configuration xmlns:xsi="http://www.w3.org/2001/XMLSchema-instance" xsi:noNamespaceSchemaLocation="http://sumo.dlr.de/xsd/sumoConfiguration.xsd">

    <input>
        <net-file value="red.net.xml"/>
        <route-files value="rutas.rou.xml"/>
        <additional-files value="test.add.xml"/>
    </input>

</configuration>
