<?xml version="1.0" encoding="UTF-8"?>

<!-- generated on 2024-07-13 20:21:45 by Eclipse SUMO netedit Version 1.20.0
-->

<additional xmlns:xsi="http://www.w3.org/2001/XMLSchema-instance" xsi:noNamespaceSchemaLocation="http://sumo.dlr.de/xsd/additional_file.xsd">
    <!-- Wires -->
    <tractionSubstation id="tr_0" pos="100.00,100.00" voltage="600.00" currentLimit="400.00"/>
</additional>
